/*--------------------------------*- C++ -*----------------------------------*\
| =========                 |                                                 |
| \\      /  F ield         | OpenFOAM: The Open Source CFD Toolbox           |
|  \\    /   O peration     | Version:  6.0.0                                 |
|   \\  /    A nd           | Web:      www.OpenFOAM.org                      |
|    \\/     M anipulation  |                                                 |
\*---------------------------------------------------------------------------*/
FoamFile
{
    version     2.0;
    format      ascii;
    class       dictionary;
    location    "constant";
    object      solids;
}
// * * * * * * * * * * * * * * * * * * * * * * * * * * * * * * * * * * * * * //

meta
{
  on_fluid 1;
  on_twod  1;
  gravity  (0.0 0.0 0.0);
}
  
shapes
{
    shape1
    {
        name circle1;
        type Circle;
        radius 0.3;
    }
}

materials
{
    material1
    {
      name mat1;
      type General;
      rho 2.0;
    }
}

motions
{
    motion1
    {
       name free1;
       type Motion111111;
    }
    motion2
    {
      name static1;
      type Motion000000;
    }
    motion3
    {
      name onlyzrot1;
      type Motion000001;
    }
}

solids
{
    solid1
    {
      shp_name circle1;
      mot_name onlyzrot1;
      mat_name mat1;
      pos (0.0 0.0 0.0);
      vel (0.0 0.0 0.0);
      euler (0.0 0.0 0.0);
    }
}

planes {}
