/*--------------------------------*- C++ -*----------------------------------*\
| =========                 |                                                 |
| \\      /  F ield         | OpenFOAM: The Open Source CFD Toolbox           |
|  \\    /   O peration     | Version:  6.0.0                                 |
|   \\  /    A nd           | Web:      www.OpenFOAM.org                      |
|    \\/     M anipulation  |                                                 |
\*---------------------------------------------------------------------------*/
FoamFile
{
    version     2.0;
    format      ascii;
    class       dictionary;
    object      solidDict;
}
// * * * * * * * * * * * * * * * * * * * * * * * * * * * * * * * * * * * * * //
meta
{
    on_twod         1;
}

shapes
{
    shape1
    {
        name            circle1;
        type            Circle;
        radius          0.3;
    }
    shape2
    {
        name            circle_tail1;
        type            Circle_Tail;
        radius          0.3;
        ratio           1;
        thickness       0.1;
    }
    shape3
    {
        name             ellipse1;
        type             Ellipse;
        radiusa          0.3;
        radiusb          0.2;
    }
    shape4
    {
        name             rectangle1;
        type             Rectangle;
        radiusa          0.3;
        radiusb          0.2;
    }
    shape5
    {
        name            plane1;
        type            Plane;
    }
}

solids
{
    solid1
    {
        shp_name        circle_tail1;
        pos             ( 0.5 1.5 0 );
        euler           ( 0 0 -45);
    }
    solid2
    {
        shp_name        circle_tail1;
        pos             ( 0.5 2.5 0 );
        euler           ( 0 0 0);
    }
    solid3
    {
        shp_name        circle_tail1;
        pos             ( 0.5 3.5 0 );
        euler           ( 0 0 45);
    }
    solid4
    {
        shp_name        rectangle1;
        pos             ( 1.5 1.5 0 );
        euler           ( 0 0 0 );
    }
    solid5
    {
        shp_name        rectangle1;
        pos             ( 1.5 2.5 0 );
        euler           ( 0 0 30);
    }
    solid6
    {
        shp_name        rectangle1;
        pos             ( 1.5 3.5 0 );
        euler           ( 0 0 60);
    }
    solid7
    {
        shp_name        ellipse1;
        pos             ( 2.5 1.5 0 );
        euler           ( 0 0 0 );
    }
    solid8
    {
        shp_name        ellipse1;
        pos             ( 2.5 2.5 0 );
        euler           ( 0 0 60);
    }
    solid9
    {
        shp_name        ellipse1;
        pos             ( 2.5 3.5 0 );
        euler           ( 0 0 120);
    }
    solid10
    {
        shp_name        circle1;
        pos             ( 3.5 1.0 0 );
        euler           ( 0 0 0 );
    }
    solid11
    {
        shp_name        circle1;
        pos             ( 3.5 2.5 0 );
        euler           ( 0 0 0 );
    }
    solid12
    {
        shp_name        circle1;
        pos             ( 3.5 3.5 0 );
        euler           ( 0 0 0 );
    }
}

planes
{
    plane1
    {
        shp_name        plane1;
        pos             ( 0 0 0 );
        euler           ( 0 0 15 );
    }
    plane2
    {
        shp_name        plane1;
        pos             ( 0 0 0 );
        euler           ( 0 0 -90 );
    }
}

// Feb 29 2020 22:04:43
